data_image0
_cell_length_a       8.9138
_cell_length_b       9.6935
_cell_length_c       9.4836
_cell_angle_alpha    90
_cell_angle_beta     115.895
_cell_angle_gamma    90

_symmetry_space_group_name_H-M    "P 1"
_symmetry_int_tables_number       1

loop_
  _symmetry_equiv_pos_as_xyz
  'x, y, z'

loop_
  _atom_site_label
  _atom_site_occupancy
  _atom_site_fract_x
  _atom_site_fract_y
  _atom_site_fract_z
  _atom_site_thermal_displace_type
  _atom_site_B_iso_or_equiv
  _atom_site_type_symbol
  _atom_site_charge
  Zn1      1.0000 0.17588  0.05771  0.43679  Biso   1.000  Zn  0.734237
  Zn2      1.0000 0.82412  0.55771  0.06321  Biso   1.000  Zn  0.734237
  Zn3      1.0000 0.82412  0.94229  0.56321  Biso   1.000  Zn  0.734237
  Zn4      1.0000 0.17588  0.44229  0.93679  Biso   1.000  Zn  0.734237
  N1       1.0000 0.03080  0.88920  0.36830  Biso   1.000  N  -0.225444
  N2       1.0000 0.96920  0.38920  0.13170  Biso   1.000  N  -0.225444
  N3       1.0000 0.96920  0.11080  0.63170  Biso   1.000  N  -0.225444
  N4       1.0000 0.03080  0.61080  0.86830  Biso   1.000  N  -0.225444
  N5       1.0000 0.90780  0.85250  0.41000  Biso   1.000  N  -0.218757
  N6       1.0000 0.09220  0.35250  0.09000  Biso   1.000  N  -0.218757
  N7       1.0000 0.09220  0.14750  0.59000  Biso   1.000  N  -0.218757
  N8       1.0000 0.90780  0.64750  0.91000  Biso   1.000  N  -0.218757
  N9       1.0000 0.90080  0.70860  0.22590  Biso   1.000  N  -0.303066
  N10      1.0000 0.09920  0.20860  0.27410  Biso   1.000  N  -0.303066
  N11      1.0000 0.09920  0.29140  0.77410  Biso   1.000  N  -0.303066
  N12      1.0000 0.90080  0.79140  0.72590  Biso   1.000  N  -0.303066
  O1       1.0000 0.40980  0.07610  0.61020  Biso   1.000  O  -0.532130
  O2       1.0000 0.59020  0.57610  0.88980  Biso   1.000  O  -0.532130
  O3       1.0000 0.59020  0.92390  0.38980  Biso   1.000  O  -0.532130
  O4       1.0000 0.40980  0.42390  0.11020  Biso   1.000  O  -0.532130
  O5       1.0000 0.67530  0.03070  0.67320  Biso   1.000  O  -0.530638
  O6       1.0000 0.32470  0.53070  0.82680  Biso   1.000  O  -0.530638
  O7       1.0000 0.32470  0.96930  0.32680  Biso   1.000  O  -0.530638
  O8       1.0000 0.67530  0.46930  0.17320  Biso   1.000  O  -0.530638
  C1       1.0000 0.02150  0.80170  0.25880  Biso   1.000  C  0.170903
  C2       1.0000 0.97850  0.30170  0.24120  Biso   1.000  C  0.170903
  C3       1.0000 0.97850  0.19830  0.74120  Biso   1.000  C  0.170903
  C4       1.0000 0.02150  0.69830  0.75880  Biso   1.000  C  0.170903
  H1       1.0000 0.09320  0.80450  0.20860  Biso   1.000  H  0.108210
  H2       1.0000 0.90680  0.30450  0.29140  Biso   1.000  H  0.108210
  H3       1.0000 0.90680  0.19550  0.79140  Biso   1.000  H  0.108210
  H4       1.0000 0.09320  0.69550  0.70860  Biso   1.000  H  0.108210
  C5       1.0000 0.83450  0.74460  0.32320  Biso   1.000  C  0.172635
  C6       1.0000 0.16550  0.24460  0.17680  Biso   1.000  C  0.172635
  C7       1.0000 0.16550  0.25540  0.67680  Biso   1.000  C  0.172635
  C8       1.0000 0.83450  0.75540  0.82320  Biso   1.000  C  0.172635
  H5       1.0000 0.74410  0.69710  0.32890  Biso   1.000  H  0.108121
  H6       1.0000 0.25590  0.19710  0.17110  Biso   1.000  H  0.108121
  H7       1.0000 0.25590  0.30290  0.67110  Biso   1.000  H  0.108121
  H8       1.0000 0.74410  0.80290  0.82890  Biso   1.000  H  0.108121
  C9       1.0000 0.52480  0.03080  0.58150  Biso   1.000  C  0.515930
  C10      1.0000 0.47520  0.53080  0.91850  Biso   1.000  C  0.515930
  C11      1.0000 0.47520  0.96920  0.41850  Biso   1.000  C  0.515930
  C12      1.0000 0.52480  0.46920  0.08150  Biso   1.000  C  0.515930
